<?xml version="1.0" encoding="UTF-8"?>

<!-- generated on 2024-05-16 12:52:05.974150 by randomTrips.py v1_19_0+0000-baa66a0f364
<configuration>
    <net-file value="osm.net.xml.gz"/>
    <output-trip-file value="osm.bus.trips.xml"/>
    <route-file value="osm.bus.rou.xml"/>
    <prefix value="bus"/>
    <trip-attributes value="departLane=&quot;best&quot;"/>
    <fringe-start-attributes value="departSpeed=&quot;max&quot;"/>
    <vehicle-class value="bus"/>
    <fringe-factor value="10"/>
    <vclass value="bus"/>
    <via-edge-types value="highway.motorway,highway.motorway_link,highway.trunk_link,highway.primary_link,highway.secondary_link,highway.tertiary_link"/>
    <min-distance value="600.0"/>
    <min-distance.fringe value="10.0"/>
    <remove-loops value="True"/>
    <validate value="True"/>
    <insertion-rate value="15.0"/>
</configuration>
-->

<!-- generated on 2024-05-16 12:52:05 by Eclipse SUMO duarouter Version 1.19.0
<configuration xmlns:xsi="http://www.w3.org/2001/XMLSchema-instance" xsi:noNamespaceSchemaLocation="http://sumo.dlr.de/xsd/duarouterConfiguration.xsd">

    <input>
        <net-file value="osm.net.xml.gz"/>
        <route-files value="osm.bus.trips.xml"/>
    </input>

    <output>
        <output-file value="osm.bus.trips.xml.tmp"/>
        <alternatives-output value="NUL"/>
        <write-trips value="true"/>
    </output>

    <processing>
        <remove-loops value="true"/>
    </processing>

    <time>
        <begin value="0.0"/>
        <end value="3600.0"/>
    </time>

    <report>
        <no-warnings value="true"/>
        <ignore-errors value="true"/>
        <no-step-log value="true"/>
    </report>

</configuration>
-->

<routes xmlns:xsi="http://www.w3.org/2001/XMLSchema-instance" xsi:noNamespaceSchemaLocation="http://sumo.dlr.de/xsd/routes_file.xsd">
    <vType id="bus_bus" vClass="bus"/>
    <trip id="bus0" type="bus_bus" depart="0.00" departLane="best" departSpeed="max" from="817484210#0" to="817484210#3"/>
    <trip id="bus1" type="bus_bus" depart="240.00" departLane="best" departSpeed="max" from="817484210#0" to="817484210#3"/>
    <trip id="bus2" type="bus_bus" depart="480.00" departLane="best" departSpeed="max" from="817484210#0" to="817484210#3"/>
    <trip id="bus3" type="bus_bus" depart="720.00" departLane="best" departSpeed="max" from="817484210#0" to="817484210#3"/>
    <trip id="bus4" type="bus_bus" depart="960.00" departLane="best" departSpeed="max" from="817484210#0" to="817484210#3"/>
    <trip id="bus5" type="bus_bus" depart="1200.00" departLane="best" departSpeed="max" from="817484210#0" to="817484210#3"/>
    <trip id="bus6" type="bus_bus" depart="1440.00" departLane="best" departSpeed="max" from="817484210#0" to="817484210#3"/>
    <trip id="bus7" type="bus_bus" depart="1680.00" departLane="best" departSpeed="max" from="817484210#0" to="817484210#3"/>
    <trip id="bus8" type="bus_bus" depart="1920.00" departLane="best" departSpeed="max" from="817484210#0" to="817484210#3"/>
    <trip id="bus9" type="bus_bus" depart="2160.00" departLane="best" departSpeed="max" from="817484210#0" to="817484210#3"/>
    <trip id="bus10" type="bus_bus" depart="2400.00" departLane="best" departSpeed="max" from="817484210#0" to="817484210#3"/>
    <trip id="bus11" type="bus_bus" depart="2640.00" departLane="best" departSpeed="max" from="817484210#0" to="817484210#3"/>
    <trip id="bus12" type="bus_bus" depart="2880.00" departLane="best" departSpeed="max" from="817484210#0" to="817484210#3"/>
    <trip id="bus13" type="bus_bus" depart="3120.00" departLane="best" departSpeed="max" from="817484210#0" to="817484210#3"/>
    <trip id="bus14" type="bus_bus" depart="3360.00" departLane="best" departSpeed="max" from="817484210#0" to="817484210#3"/>
</routes>
