<?xml version="1.0" encoding="UTF-8"?>

<!-- generated on 2024-05-16 12:52:07.005244 by randomTrips.py v1_19_0+0000-baa66a0f364
<configuration>
    <net-file value="osm.net.xml.gz"/>
    <output-trip-file value="osm.passenger.trips.xml"/>
    <route-file value="osm.passenger.rou.xml"/>
    <prefix value="veh"/>
    <trip-attributes value="departLane=&quot;best&quot;"/>
    <fringe-start-attributes value="departSpeed=&quot;max&quot;"/>
    <vehicle-class value="passenger"/>
    <lanes value="True"/>
    <fringe-factor value="10"/>
    <allow-fringe.min-length value="1000.0"/>
    <via-edge-types value="highway.motorway,highway.motorway_link,highway.trunk_link,highway.primary_link,highway.secondary_link,highway.tertiary_link"/>
    <min-distance value="300.0"/>
    <min-distance.fringe value="10.0"/>
    <remove-loops value="True"/>
    <validate value="True"/>
    <insertion-rate value="28.0"/>
</configuration>
-->

<!-- generated on 2024-05-16 12:52:06 by Eclipse SUMO duarouter Version 1.19.0
<configuration xmlns:xsi="http://www.w3.org/2001/XMLSchema-instance" xsi:noNamespaceSchemaLocation="http://sumo.dlr.de/xsd/duarouterConfiguration.xsd">

    <input>
        <net-file value="osm.net.xml.gz"/>
        <route-files value="osm.passenger.trips.xml"/>
    </input>

    <output>
        <output-file value="osm.passenger.trips.xml.tmp"/>
        <alternatives-output value="NUL"/>
        <write-trips value="true"/>
    </output>

    <processing>
        <remove-loops value="true"/>
    </processing>

    <time>
        <begin value="0.0"/>
        <end value="3600.0"/>
    </time>

    <report>
        <no-warnings value="true"/>
        <ignore-errors value="true"/>
        <no-step-log value="true"/>
    </report>

</configuration>
-->

<routes xmlns:xsi="http://www.w3.org/2001/XMLSchema-instance" xsi:noNamespaceSchemaLocation="http://sumo.dlr.de/xsd/routes_file.xsd">
    <vType id="veh_passenger" vClass="passenger"/>
    <trip id="veh0" type="veh_passenger" depart="0.00" departLane="best" departSpeed="max" from="817484210#0" to="817484210#3"/>
    <trip id="veh1" type="veh_passenger" depart="128.57" departLane="best" departSpeed="max" from="817484210#0" to="817484210#3"/>
    <trip id="veh2" type="veh_passenger" depart="257.14" departLane="best" departSpeed="max" from="817484210#0" to="817484210#3"/>
    <trip id="veh3" type="veh_passenger" depart="385.71" departLane="best" departSpeed="max" from="817484210#0" to="817484210#3"/>
    <trip id="veh4" type="veh_passenger" depart="514.29" departLane="best" departSpeed="max" from="817484210#0" to="817484210#3"/>
    <trip id="veh5" type="veh_passenger" depart="642.86" departLane="best" departSpeed="max" from="817484210#0" to="817484210#3"/>
    <trip id="veh6" type="veh_passenger" depart="771.43" departLane="best" departSpeed="max" from="817484210#0" to="817484210#3"/>
    <trip id="veh7" type="veh_passenger" depart="900.00" departLane="best" departSpeed="max" from="817484210#0" to="817484210#3"/>
    <trip id="veh8" type="veh_passenger" depart="1028.57" departLane="best" departSpeed="max" from="817484210#0" to="817484210#3"/>
    <trip id="veh9" type="veh_passenger" depart="1157.14" departLane="best" departSpeed="max" from="817484210#0" to="817484210#3"/>
    <trip id="veh10" type="veh_passenger" depart="1285.71" departLane="best" departSpeed="max" from="817484210#0" to="817484210#3"/>
    <trip id="veh11" type="veh_passenger" depart="1414.29" departLane="best" departSpeed="max" from="817484210#0" to="817484210#3"/>
    <trip id="veh12" type="veh_passenger" depart="1542.86" departLane="best" departSpeed="max" from="817484210#0" to="817484210#3"/>
    <trip id="veh13" type="veh_passenger" depart="1671.43" departLane="best" departSpeed="max" from="817484210#0" to="817484210#3"/>
    <trip id="veh14" type="veh_passenger" depart="1800.00" departLane="best" departSpeed="max" from="817484210#0" to="817484210#3"/>
    <trip id="veh15" type="veh_passenger" depart="1928.57" departLane="best" departSpeed="max" from="817484210#0" to="817484210#3"/>
    <trip id="veh16" type="veh_passenger" depart="2057.14" departLane="best" departSpeed="max" from="817484210#0" to="817484210#3"/>
    <trip id="veh17" type="veh_passenger" depart="2185.71" departLane="best" departSpeed="max" from="817484210#0" to="817484210#3"/>
    <trip id="veh18" type="veh_passenger" depart="2314.29" departLane="best" departSpeed="max" from="817484210#0" to="817484210#3"/>
    <trip id="veh19" type="veh_passenger" depart="2442.86" departLane="best" departSpeed="max" from="817484210#0" to="817484210#3"/>
    <trip id="veh20" type="veh_passenger" depart="2571.43" departLane="best" departSpeed="max" from="817484210#0" to="817484210#3"/>
    <trip id="veh21" type="veh_passenger" depart="2700.00" departLane="best" departSpeed="max" from="817484210#0" to="817484210#3"/>
    <trip id="veh22" type="veh_passenger" depart="2828.57" departLane="best" departSpeed="max" from="817484210#0" to="817484210#3"/>
    <trip id="veh23" type="veh_passenger" depart="2957.14" departLane="best" departSpeed="max" from="817484210#0" to="817484210#3"/>
    <trip id="veh24" type="veh_passenger" depart="3085.71" departLane="best" departSpeed="max" from="817484210#0" to="817484210#3"/>
    <trip id="veh25" type="veh_passenger" depart="3214.29" departLane="best" departSpeed="max" from="817484210#0" to="817484210#3"/>
    <trip id="veh26" type="veh_passenger" depart="3342.86" departLane="best" departSpeed="max" from="817484210#0" to="817484210#3"/>
    <trip id="veh27" type="veh_passenger" depart="3471.43" departLane="best" departSpeed="max" from="817484210#0" to="817484210#3"/>
</routes>
