<?xml version="1.0" encoding="UTF-8"?>

<!-- generated on 2024-05-16 12:52:06.459130 by randomTrips.py v1_19_0+0000-baa66a0f364
<configuration>
    <net-file value="osm.net.xml.gz"/>
    <output-trip-file value="osm.motorcycle.trips.xml"/>
    <route-file value="osm.motorcycle.rou.xml"/>
    <prefix value="motorcycle"/>
    <trip-attributes value="departLane=&quot;best&quot;"/>
    <fringe-start-attributes value="departSpeed=&quot;max&quot;"/>
    <vehicle-class value="motorcycle"/>
    <fringe-factor value="10"/>
    <vclass value="motorcycle"/>
    <via-edge-types value="highway.motorway,highway.motorway_link,highway.trunk_link,highway.primary_link,highway.secondary_link,highway.tertiary_link"/>
    <max-distance value="1200.0"/>
    <remove-loops value="True"/>
    <validate value="True"/>
    <insertion-rate value="798.0"/>
</configuration>
-->

<!-- generated on 2024-05-16 12:52:06 by Eclipse SUMO duarouter Version 1.19.0
<configuration xmlns:xsi="http://www.w3.org/2001/XMLSchema-instance" xsi:noNamespaceSchemaLocation="http://sumo.dlr.de/xsd/duarouterConfiguration.xsd">

    <input>
        <net-file value="osm.net.xml.gz"/>
        <route-files value="osm.motorcycle.trips.xml"/>
    </input>

    <output>
        <output-file value="osm.motorcycle.trips.xml.tmp"/>
        <alternatives-output value="NUL"/>
        <write-trips value="true"/>
    </output>

    <processing>
        <remove-loops value="true"/>
    </processing>

    <time>
        <begin value="0.0"/>
        <end value="3600.0"/>
    </time>

    <report>
        <no-warnings value="true"/>
        <ignore-errors value="true"/>
        <no-step-log value="true"/>
    </report>

</configuration>
-->

<routes xmlns:xsi="http://www.w3.org/2001/XMLSchema-instance" xsi:noNamespaceSchemaLocation="http://sumo.dlr.de/xsd/routes_file.xsd">
    <vType id="motorcycle_motorcycle" vClass="motorcycle"/>
    <trip id="motorcycle0" type="motorcycle_motorcycle" depart="0.00" departLane="best" departSpeed="max" from="817484210#0" to="817484210#3"/>
    <trip id="motorcycle1" type="motorcycle_motorcycle" depart="4.51" departLane="best" departSpeed="max" from="817484210#0" to="817484210#3"/>
    <trip id="motorcycle2" type="motorcycle_motorcycle" depart="9.02" departLane="best" departSpeed="max" from="817484210#0" to="817484210#3"/>
    <trip id="motorcycle3" type="motorcycle_motorcycle" depart="13.53" departLane="best" departSpeed="max" from="817484210#0" to="817484210#3"/>
    <trip id="motorcycle4" type="motorcycle_motorcycle" depart="18.05" departLane="best" departSpeed="max" from="817484210#0" to="817484210#3"/>
    <trip id="motorcycle5" type="motorcycle_motorcycle" depart="22.56" departLane="best" departSpeed="max" from="817484210#0" to="817484210#3"/>
    <trip id="motorcycle6" type="motorcycle_motorcycle" depart="27.07" departLane="best" departSpeed="max" from="817484210#0" to="817484210#3"/>
    <trip id="motorcycle7" type="motorcycle_motorcycle" depart="31.58" departLane="best" departSpeed="max" from="817484210#0" to="817484210#3"/>
    <trip id="motorcycle8" type="motorcycle_motorcycle" depart="36.09" departLane="best" departSpeed="max" from="817484210#0" to="817484210#3"/>
    <trip id="motorcycle9" type="motorcycle_motorcycle" depart="40.60" departLane="best" departSpeed="max" from="817484210#0" to="817484210#3"/>
    <trip id="motorcycle10" type="motorcycle_motorcycle" depart="45.11" departLane="best" departSpeed="max" from="817484210#0" to="817484210#3"/>
    <trip id="motorcycle11" type="motorcycle_motorcycle" depart="49.62" departLane="best" departSpeed="max" from="817484210#0" to="817484210#3"/>
    <trip id="motorcycle12" type="motorcycle_motorcycle" depart="54.14" departLane="best" departSpeed="max" from="817484210#0" to="817484210#3"/>
    <trip id="motorcycle13" type="motorcycle_motorcycle" depart="58.65" departLane="best" departSpeed="max" from="817484210#0" to="817484210#3"/>
    <trip id="motorcycle14" type="motorcycle_motorcycle" depart="63.16" departLane="best" departSpeed="max" from="817484210#0" to="817484210#3"/>
    <trip id="motorcycle15" type="motorcycle_motorcycle" depart="67.67" departLane="best" departSpeed="max" from="817484210#0" to="817484210#3"/>
    <trip id="motorcycle16" type="motorcycle_motorcycle" depart="72.18" departLane="best" departSpeed="max" from="817484210#0" to="817484210#3"/>
    <trip id="motorcycle17" type="motorcycle_motorcycle" depart="76.69" departLane="best" departSpeed="max" from="817484210#0" to="817484210#3"/>
    <trip id="motorcycle18" type="motorcycle_motorcycle" depart="81.20" departLane="best" departSpeed="max" from="817484210#0" to="817484210#3"/>
    <trip id="motorcycle19" type="motorcycle_motorcycle" depart="85.71" departLane="best" departSpeed="max" from="817484210#0" to="817484210#3"/>
    <trip id="motorcycle20" type="motorcycle_motorcycle" depart="90.23" departLane="best" departSpeed="max" from="817484210#0" to="817484210#3"/>
    <trip id="motorcycle21" type="motorcycle_motorcycle" depart="94.74" departLane="best" departSpeed="max" from="817484210#0" to="817484210#3"/>
    <trip id="motorcycle22" type="motorcycle_motorcycle" depart="99.25" departLane="best" departSpeed="max" from="817484210#0" to="817484210#3"/>
    <trip id="motorcycle23" type="motorcycle_motorcycle" depart="103.76" departLane="best" departSpeed="max" from="817484210#0" to="817484210#3"/>
    <trip id="motorcycle24" type="motorcycle_motorcycle" depart="108.27" departLane="best" departSpeed="max" from="817484210#0" to="817484210#3"/>
    <trip id="motorcycle25" type="motorcycle_motorcycle" depart="112.78" departLane="best" departSpeed="max" from="817484210#0" to="817484210#3"/>
    <trip id="motorcycle26" type="motorcycle_motorcycle" depart="117.29" departLane="best" departSpeed="max" from="817484210#0" to="817484210#3"/>
    <trip id="motorcycle27" type="motorcycle_motorcycle" depart="121.80" departLane="best" departSpeed="max" from="817484210#0" to="817484210#3"/>
    <trip id="motorcycle28" type="motorcycle_motorcycle" depart="126.32" departLane="best" departSpeed="max" from="817484210#0" to="817484210#3"/>
    <trip id="motorcycle29" type="motorcycle_motorcycle" depart="130.83" departLane="best" departSpeed="max" from="817484210#0" to="817484210#3"/>
    <trip id="motorcycle30" type="motorcycle_motorcycle" depart="135.34" departLane="best" departSpeed="max" from="817484210#0" to="817484210#3"/>
    <trip id="motorcycle31" type="motorcycle_motorcycle" depart="139.85" departLane="best" departSpeed="max" from="817484210#0" to="817484210#3"/>
    <trip id="motorcycle32" type="motorcycle_motorcycle" depart="144.36" departLane="best" departSpeed="max" from="817484210#0" to="817484210#3"/>
    <trip id="motorcycle33" type="motorcycle_motorcycle" depart="148.87" departLane="best" departSpeed="max" from="817484210#0" to="817484210#3"/>
    <trip id="motorcycle34" type="motorcycle_motorcycle" depart="153.38" departLane="best" departSpeed="max" from="817484210#0" to="817484210#3"/>
    <trip id="motorcycle35" type="motorcycle_motorcycle" depart="157.89" departLane="best" departSpeed="max" from="817484210#0" to="817484210#3"/>
    <trip id="motorcycle36" type="motorcycle_motorcycle" depart="162.41" departLane="best" departSpeed="max" from="817484210#0" to="817484210#3"/>
    <trip id="motorcycle37" type="motorcycle_motorcycle" depart="166.92" departLane="best" departSpeed="max" from="817484210#0" to="817484210#3"/>
    <trip id="motorcycle38" type="motorcycle_motorcycle" depart="171.43" departLane="best" departSpeed="max" from="817484210#0" to="817484210#3"/>
    <trip id="motorcycle39" type="motorcycle_motorcycle" depart="175.94" departLane="best" departSpeed="max" from="817484210#0" to="817484210#3"/>
    <trip id="motorcycle40" type="motorcycle_motorcycle" depart="180.45" departLane="best" departSpeed="max" from="817484210#0" to="817484210#3"/>
    <trip id="motorcycle41" type="motorcycle_motorcycle" depart="184.96" departLane="best" departSpeed="max" from="817484210#0" to="817484210#3"/>
    <trip id="motorcycle42" type="motorcycle_motorcycle" depart="189.47" departLane="best" departSpeed="max" from="817484210#0" to="817484210#3"/>
    <trip id="motorcycle43" type="motorcycle_motorcycle" depart="193.98" departLane="best" departSpeed="max" from="817484210#0" to="817484210#3"/>
    <trip id="motorcycle44" type="motorcycle_motorcycle" depart="198.50" departLane="best" departSpeed="max" from="817484210#0" to="817484210#3"/>
    <trip id="motorcycle45" type="motorcycle_motorcycle" depart="203.01" departLane="best" departSpeed="max" from="817484210#0" to="817484210#3"/>
    <trip id="motorcycle46" type="motorcycle_motorcycle" depart="207.52" departLane="best" departSpeed="max" from="817484210#0" to="817484210#3"/>
    <trip id="motorcycle47" type="motorcycle_motorcycle" depart="212.03" departLane="best" departSpeed="max" from="817484210#0" to="817484210#3"/>
    <trip id="motorcycle48" type="motorcycle_motorcycle" depart="216.54" departLane="best" departSpeed="max" from="817484210#0" to="817484210#3"/>
    <trip id="motorcycle49" type="motorcycle_motorcycle" depart="221.05" departLane="best" departSpeed="max" from="817484210#0" to="817484210#3"/>
    <trip id="motorcycle50" type="motorcycle_motorcycle" depart="225.56" departLane="best" departSpeed="max" from="817484210#0" to="817484210#3"/>
    <trip id="motorcycle51" type="motorcycle_motorcycle" depart="230.08" departLane="best" departSpeed="max" from="817484210#0" to="817484210#3"/>
    <trip id="motorcycle52" type="motorcycle_motorcycle" depart="234.59" departLane="best" departSpeed="max" from="817484210#0" to="817484210#3"/>
    <trip id="motorcycle53" type="motorcycle_motorcycle" depart="239.10" departLane="best" departSpeed="max" from="817484210#0" to="817484210#3"/>
    <trip id="motorcycle54" type="motorcycle_motorcycle" depart="243.61" departLane="best" departSpeed="max" from="817484210#0" to="817484210#3"/>
    <trip id="motorcycle55" type="motorcycle_motorcycle" depart="248.12" departLane="best" departSpeed="max" from="817484210#0" to="817484210#3"/>
    <trip id="motorcycle56" type="motorcycle_motorcycle" depart="252.63" departLane="best" departSpeed="max" from="817484210#0" to="817484210#3"/>
    <trip id="motorcycle57" type="motorcycle_motorcycle" depart="257.14" departLane="best" departSpeed="max" from="817484210#0" to="817484210#3"/>
    <trip id="motorcycle58" type="motorcycle_motorcycle" depart="261.65" departLane="best" departSpeed="max" from="817484210#0" to="817484210#3"/>
    <trip id="motorcycle59" type="motorcycle_motorcycle" depart="266.17" departLane="best" departSpeed="max" from="817484210#0" to="817484210#3"/>
    <trip id="motorcycle60" type="motorcycle_motorcycle" depart="270.68" departLane="best" departSpeed="max" from="817484210#0" to="817484210#3"/>
    <trip id="motorcycle61" type="motorcycle_motorcycle" depart="275.19" departLane="best" departSpeed="max" from="817484210#0" to="817484210#3"/>
    <trip id="motorcycle62" type="motorcycle_motorcycle" depart="279.70" departLane="best" departSpeed="max" from="817484210#0" to="817484210#3"/>
    <trip id="motorcycle63" type="motorcycle_motorcycle" depart="284.21" departLane="best" departSpeed="max" from="817484210#0" to="817484210#3"/>
    <trip id="motorcycle64" type="motorcycle_motorcycle" depart="288.72" departLane="best" departSpeed="max" from="817484210#0" to="817484210#3"/>
    <trip id="motorcycle65" type="motorcycle_motorcycle" depart="293.23" departLane="best" departSpeed="max" from="817484210#0" to="817484210#3"/>
    <trip id="motorcycle66" type="motorcycle_motorcycle" depart="297.74" departLane="best" departSpeed="max" from="817484210#0" to="817484210#3"/>
    <trip id="motorcycle67" type="motorcycle_motorcycle" depart="302.26" departLane="best" departSpeed="max" from="817484210#0" to="817484210#3"/>
    <trip id="motorcycle68" type="motorcycle_motorcycle" depart="306.77" departLane="best" departSpeed="max" from="817484210#0" to="817484210#3"/>
    <trip id="motorcycle69" type="motorcycle_motorcycle" depart="311.28" departLane="best" departSpeed="max" from="817484210#0" to="817484210#3"/>
    <trip id="motorcycle70" type="motorcycle_motorcycle" depart="315.79" departLane="best" departSpeed="max" from="817484210#0" to="817484210#3"/>
    <trip id="motorcycle71" type="motorcycle_motorcycle" depart="320.30" departLane="best" departSpeed="max" from="817484210#0" to="817484210#3"/>
    <trip id="motorcycle72" type="motorcycle_motorcycle" depart="324.81" departLane="best" departSpeed="max" from="817484210#0" to="817484210#3"/>
    <trip id="motorcycle73" type="motorcycle_motorcycle" depart="329.32" departLane="best" departSpeed="max" from="817484210#0" to="817484210#3"/>
    <trip id="motorcycle74" type="motorcycle_motorcycle" depart="333.83" departLane="best" departSpeed="max" from="817484210#0" to="817484210#3"/>
    <trip id="motorcycle75" type="motorcycle_motorcycle" depart="338.35" departLane="best" departSpeed="max" from="817484210#0" to="817484210#3"/>
    <trip id="motorcycle76" type="motorcycle_motorcycle" depart="342.86" departLane="best" departSpeed="max" from="817484210#0" to="817484210#3"/>
    <trip id="motorcycle77" type="motorcycle_motorcycle" depart="347.37" departLane="best" departSpeed="max" from="817484210#0" to="817484210#3"/>
    <trip id="motorcycle78" type="motorcycle_motorcycle" depart="351.88" departLane="best" departSpeed="max" from="817484210#0" to="817484210#3"/>
    <trip id="motorcycle79" type="motorcycle_motorcycle" depart="356.39" departLane="best" departSpeed="max" from="817484210#0" to="817484210#3"/>
    <trip id="motorcycle80" type="motorcycle_motorcycle" depart="360.90" departLane="best" departSpeed="max" from="817484210#0" to="817484210#3"/>
    <trip id="motorcycle81" type="motorcycle_motorcycle" depart="365.41" departLane="best" departSpeed="max" from="817484210#0" to="817484210#3"/>
    <trip id="motorcycle82" type="motorcycle_motorcycle" depart="369.92" departLane="best" departSpeed="max" from="817484210#0" to="817484210#3"/>
    <trip id="motorcycle83" type="motorcycle_motorcycle" depart="374.44" departLane="best" departSpeed="max" from="817484210#0" to="817484210#3"/>
    <trip id="motorcycle84" type="motorcycle_motorcycle" depart="378.95" departLane="best" departSpeed="max" from="817484210#0" to="817484210#3"/>
    <trip id="motorcycle85" type="motorcycle_motorcycle" depart="383.46" departLane="best" departSpeed="max" from="817484210#0" to="817484210#3"/>
    <trip id="motorcycle86" type="motorcycle_motorcycle" depart="387.97" departLane="best" departSpeed="max" from="817484210#0" to="817484210#3"/>
    <trip id="motorcycle87" type="motorcycle_motorcycle" depart="392.48" departLane="best" departSpeed="max" from="817484210#0" to="817484210#3"/>
    <trip id="motorcycle88" type="motorcycle_motorcycle" depart="396.99" departLane="best" departSpeed="max" from="817484210#0" to="817484210#3"/>
    <trip id="motorcycle89" type="motorcycle_motorcycle" depart="401.50" departLane="best" departSpeed="max" from="817484210#0" to="817484210#3"/>
    <trip id="motorcycle90" type="motorcycle_motorcycle" depart="406.02" departLane="best" departSpeed="max" from="817484210#0" to="817484210#3"/>
    <trip id="motorcycle91" type="motorcycle_motorcycle" depart="410.53" departLane="best" departSpeed="max" from="817484210#0" to="817484210#3"/>
    <trip id="motorcycle92" type="motorcycle_motorcycle" depart="415.04" departLane="best" departSpeed="max" from="817484210#0" to="817484210#3"/>
    <trip id="motorcycle93" type="motorcycle_motorcycle" depart="419.55" departLane="best" departSpeed="max" from="817484210#0" to="817484210#3"/>
    <trip id="motorcycle94" type="motorcycle_motorcycle" depart="424.06" departLane="best" departSpeed="max" from="817484210#0" to="817484210#3"/>
    <trip id="motorcycle95" type="motorcycle_motorcycle" depart="428.57" departLane="best" departSpeed="max" from="817484210#0" to="817484210#3"/>
    <trip id="motorcycle96" type="motorcycle_motorcycle" depart="433.08" departLane="best" departSpeed="max" from="817484210#0" to="817484210#3"/>
    <trip id="motorcycle97" type="motorcycle_motorcycle" depart="437.59" departLane="best" departSpeed="max" from="817484210#0" to="817484210#3"/>
    <trip id="motorcycle98" type="motorcycle_motorcycle" depart="442.11" departLane="best" departSpeed="max" from="817484210#0" to="817484210#3"/>
    <trip id="motorcycle99" type="motorcycle_motorcycle" depart="446.62" departLane="best" departSpeed="max" from="817484210#0" to="817484210#3"/>
    <trip id="motorcycle100" type="motorcycle_motorcycle" depart="451.13" departLane="best" departSpeed="max" from="817484210#0" to="817484210#3"/>
    <trip id="motorcycle101" type="motorcycle_motorcycle" depart="455.64" departLane="best" departSpeed="max" from="817484210#0" to="817484210#3"/>
    <trip id="motorcycle102" type="motorcycle_motorcycle" depart="460.15" departLane="best" departSpeed="max" from="817484210#0" to="817484210#3"/>
    <trip id="motorcycle103" type="motorcycle_motorcycle" depart="464.66" departLane="best" departSpeed="max" from="817484210#0" to="817484210#3"/>
    <trip id="motorcycle104" type="motorcycle_motorcycle" depart="469.17" departLane="best" departSpeed="max" from="817484210#0" to="817484210#3"/>
    <trip id="motorcycle105" type="motorcycle_motorcycle" depart="473.68" departLane="best" departSpeed="max" from="817484210#0" to="817484210#3"/>
    <trip id="motorcycle106" type="motorcycle_motorcycle" depart="478.20" departLane="best" departSpeed="max" from="817484210#0" to="817484210#3"/>
    <trip id="motorcycle107" type="motorcycle_motorcycle" depart="482.71" departLane="best" departSpeed="max" from="817484210#0" to="817484210#3"/>
    <trip id="motorcycle108" type="motorcycle_motorcycle" depart="487.22" departLane="best" departSpeed="max" from="817484210#0" to="817484210#3"/>
    <trip id="motorcycle109" type="motorcycle_motorcycle" depart="491.73" departLane="best" departSpeed="max" from="817484210#0" to="817484210#3"/>
    <trip id="motorcycle110" type="motorcycle_motorcycle" depart="496.24" departLane="best" departSpeed="max" from="817484210#0" to="817484210#3"/>
    <trip id="motorcycle111" type="motorcycle_motorcycle" depart="500.75" departLane="best" departSpeed="max" from="817484210#0" to="817484210#3"/>
    <trip id="motorcycle112" type="motorcycle_motorcycle" depart="505.26" departLane="best" departSpeed="max" from="817484210#0" to="817484210#3"/>
    <trip id="motorcycle113" type="motorcycle_motorcycle" depart="509.77" departLane="best" departSpeed="max" from="817484210#0" to="817484210#3"/>
    <trip id="motorcycle114" type="motorcycle_motorcycle" depart="514.29" departLane="best" departSpeed="max" from="817484210#0" to="817484210#3"/>
    <trip id="motorcycle115" type="motorcycle_motorcycle" depart="518.80" departLane="best" departSpeed="max" from="817484210#0" to="817484210#3"/>
    <trip id="motorcycle116" type="motorcycle_motorcycle" depart="523.31" departLane="best" departSpeed="max" from="817484210#0" to="817484210#3"/>
    <trip id="motorcycle117" type="motorcycle_motorcycle" depart="527.82" departLane="best" departSpeed="max" from="817484210#0" to="817484210#3"/>
    <trip id="motorcycle118" type="motorcycle_motorcycle" depart="532.33" departLane="best" departSpeed="max" from="817484210#0" to="817484210#3"/>
    <trip id="motorcycle119" type="motorcycle_motorcycle" depart="536.84" departLane="best" departSpeed="max" from="817484210#0" to="817484210#3"/>
    <trip id="motorcycle120" type="motorcycle_motorcycle" depart="541.35" departLane="best" departSpeed="max" from="817484210#0" to="817484210#3"/>
    <trip id="motorcycle121" type="motorcycle_motorcycle" depart="545.86" departLane="best" departSpeed="max" from="817484210#0" to="817484210#3"/>
    <trip id="motorcycle122" type="motorcycle_motorcycle" depart="550.38" departLane="best" departSpeed="max" from="817484210#0" to="817484210#3"/>
    <trip id="motorcycle123" type="motorcycle_motorcycle" depart="554.89" departLane="best" departSpeed="max" from="817484210#0" to="817484210#3"/>
    <trip id="motorcycle124" type="motorcycle_motorcycle" depart="559.40" departLane="best" departSpeed="max" from="817484210#0" to="817484210#3"/>
    <trip id="motorcycle125" type="motorcycle_motorcycle" depart="563.91" departLane="best" departSpeed="max" from="817484210#0" to="817484210#3"/>
    <trip id="motorcycle126" type="motorcycle_motorcycle" depart="568.42" departLane="best" departSpeed="max" from="817484210#0" to="817484210#3"/>
    <trip id="motorcycle127" type="motorcycle_motorcycle" depart="572.93" departLane="best" departSpeed="max" from="817484210#0" to="817484210#3"/>
    <trip id="motorcycle128" type="motorcycle_motorcycle" depart="577.44" departLane="best" departSpeed="max" from="817484210#0" to="817484210#3"/>
    <trip id="motorcycle129" type="motorcycle_motorcycle" depart="581.95" departLane="best" departSpeed="max" from="817484210#0" to="817484210#3"/>
    <trip id="motorcycle130" type="motorcycle_motorcycle" depart="586.47" departLane="best" departSpeed="max" from="817484210#0" to="817484210#3"/>
    <trip id="motorcycle131" type="motorcycle_motorcycle" depart="590.98" departLane="best" departSpeed="max" from="817484210#0" to="817484210#3"/>
    <trip id="motorcycle132" type="motorcycle_motorcycle" depart="595.49" departLane="best" departSpeed="max" from="817484210#0" to="817484210#3"/>
    <trip id="motorcycle133" type="motorcycle_motorcycle" depart="600.00" departLane="best" departSpeed="max" from="817484210#0" to="817484210#3"/>
    <trip id="motorcycle134" type="motorcycle_motorcycle" depart="604.51" departLane="best" departSpeed="max" from="817484210#0" to="817484210#3"/>
    <trip id="motorcycle135" type="motorcycle_motorcycle" depart="609.02" departLane="best" departSpeed="max" from="817484210#0" to="817484210#3"/>
    <trip id="motorcycle136" type="motorcycle_motorcycle" depart="613.53" departLane="best" departSpeed="max" from="817484210#0" to="817484210#3"/>
    <trip id="motorcycle137" type="motorcycle_motorcycle" depart="618.05" departLane="best" departSpeed="max" from="817484210#0" to="817484210#3"/>
    <trip id="motorcycle138" type="motorcycle_motorcycle" depart="622.56" departLane="best" departSpeed="max" from="817484210#0" to="817484210#3"/>
    <trip id="motorcycle139" type="motorcycle_motorcycle" depart="627.07" departLane="best" departSpeed="max" from="817484210#0" to="817484210#3"/>
    <trip id="motorcycle140" type="motorcycle_motorcycle" depart="631.58" departLane="best" departSpeed="max" from="817484210#0" to="817484210#3"/>
    <trip id="motorcycle141" type="motorcycle_motorcycle" depart="636.09" departLane="best" departSpeed="max" from="817484210#0" to="817484210#3"/>
    <trip id="motorcycle142" type="motorcycle_motorcycle" depart="640.60" departLane="best" departSpeed="max" from="817484210#0" to="817484210#3"/>
    <trip id="motorcycle143" type="motorcycle_motorcycle" depart="645.11" departLane="best" departSpeed="max" from="817484210#0" to="817484210#3"/>
    <trip id="motorcycle144" type="motorcycle_motorcycle" depart="649.62" departLane="best" departSpeed="max" from="817484210#0" to="817484210#3"/>
    <trip id="motorcycle145" type="motorcycle_motorcycle" depart="654.14" departLane="best" departSpeed="max" from="817484210#0" to="817484210#3"/>
    <trip id="motorcycle146" type="motorcycle_motorcycle" depart="658.65" departLane="best" departSpeed="max" from="817484210#0" to="817484210#3"/>
    <trip id="motorcycle147" type="motorcycle_motorcycle" depart="663.16" departLane="best" departSpeed="max" from="817484210#0" to="817484210#3"/>
    <trip id="motorcycle148" type="motorcycle_motorcycle" depart="667.67" departLane="best" departSpeed="max" from="817484210#0" to="817484210#3"/>
    <trip id="motorcycle149" type="motorcycle_motorcycle" depart="672.18" departLane="best" departSpeed="max" from="817484210#0" to="817484210#3"/>
    <trip id="motorcycle150" type="motorcycle_motorcycle" depart="676.69" departLane="best" departSpeed="max" from="817484210#0" to="817484210#3"/>
    <trip id="motorcycle151" type="motorcycle_motorcycle" depart="681.20" departLane="best" departSpeed="max" from="817484210#0" to="817484210#3"/>
    <trip id="motorcycle152" type="motorcycle_motorcycle" depart="685.71" departLane="best" departSpeed="max" from="817484210#0" to="817484210#3"/>
    <trip id="motorcycle153" type="motorcycle_motorcycle" depart="690.23" departLane="best" departSpeed="max" from="817484210#0" to="817484210#3"/>
    <trip id="motorcycle154" type="motorcycle_motorcycle" depart="694.74" departLane="best" departSpeed="max" from="817484210#0" to="817484210#3"/>
    <trip id="motorcycle155" type="motorcycle_motorcycle" depart="699.25" departLane="best" departSpeed="max" from="817484210#0" to="817484210#3"/>
    <trip id="motorcycle156" type="motorcycle_motorcycle" depart="703.76" departLane="best" departSpeed="max" from="817484210#0" to="817484210#3"/>
    <trip id="motorcycle157" type="motorcycle_motorcycle" depart="708.27" departLane="best" departSpeed="max" from="817484210#0" to="817484210#3"/>
    <trip id="motorcycle158" type="motorcycle_motorcycle" depart="712.78" departLane="best" departSpeed="max" from="817484210#0" to="817484210#3"/>
    <trip id="motorcycle159" type="motorcycle_motorcycle" depart="717.29" departLane="best" departSpeed="max" from="817484210#0" to="817484210#3"/>
    <trip id="motorcycle160" type="motorcycle_motorcycle" depart="721.80" departLane="best" departSpeed="max" from="817484210#0" to="817484210#3"/>
    <trip id="motorcycle161" type="motorcycle_motorcycle" depart="726.32" departLane="best" departSpeed="max" from="817484210#0" to="817484210#3"/>
    <trip id="motorcycle162" type="motorcycle_motorcycle" depart="730.83" departLane="best" departSpeed="max" from="817484210#0" to="817484210#3"/>
    <trip id="motorcycle163" type="motorcycle_motorcycle" depart="735.34" departLane="best" departSpeed="max" from="817484210#0" to="817484210#3"/>
    <trip id="motorcycle164" type="motorcycle_motorcycle" depart="739.85" departLane="best" departSpeed="max" from="817484210#0" to="817484210#3"/>
    <trip id="motorcycle165" type="motorcycle_motorcycle" depart="744.36" departLane="best" departSpeed="max" from="817484210#0" to="817484210#3"/>
    <trip id="motorcycle166" type="motorcycle_motorcycle" depart="748.87" departLane="best" departSpeed="max" from="817484210#0" to="817484210#3"/>
    <trip id="motorcycle167" type="motorcycle_motorcycle" depart="753.38" departLane="best" departSpeed="max" from="817484210#0" to="817484210#3"/>
    <trip id="motorcycle168" type="motorcycle_motorcycle" depart="757.89" departLane="best" departSpeed="max" from="817484210#0" to="817484210#3"/>
    <trip id="motorcycle169" type="motorcycle_motorcycle" depart="762.41" departLane="best" departSpeed="max" from="817484210#0" to="817484210#3"/>
    <trip id="motorcycle170" type="motorcycle_motorcycle" depart="766.92" departLane="best" departSpeed="max" from="817484210#0" to="817484210#3"/>
    <trip id="motorcycle171" type="motorcycle_motorcycle" depart="771.43" departLane="best" departSpeed="max" from="817484210#0" to="817484210#3"/>
    <trip id="motorcycle172" type="motorcycle_motorcycle" depart="775.94" departLane="best" departSpeed="max" from="817484210#0" to="817484210#3"/>
    <trip id="motorcycle173" type="motorcycle_motorcycle" depart="780.45" departLane="best" departSpeed="max" from="817484210#0" to="817484210#3"/>
    <trip id="motorcycle174" type="motorcycle_motorcycle" depart="784.96" departLane="best" departSpeed="max" from="817484210#0" to="817484210#3"/>
    <trip id="motorcycle175" type="motorcycle_motorcycle" depart="789.47" departLane="best" departSpeed="max" from="817484210#0" to="817484210#3"/>
    <trip id="motorcycle176" type="motorcycle_motorcycle" depart="793.98" departLane="best" departSpeed="max" from="817484210#0" to="817484210#3"/>
    <trip id="motorcycle177" type="motorcycle_motorcycle" depart="798.50" departLane="best" departSpeed="max" from="817484210#0" to="817484210#3"/>
    <trip id="motorcycle178" type="motorcycle_motorcycle" depart="803.01" departLane="best" departSpeed="max" from="817484210#0" to="817484210#3"/>
    <trip id="motorcycle179" type="motorcycle_motorcycle" depart="807.52" departLane="best" departSpeed="max" from="817484210#0" to="817484210#3"/>
    <trip id="motorcycle180" type="motorcycle_motorcycle" depart="812.03" departLane="best" departSpeed="max" from="817484210#0" to="817484210#3"/>
    <trip id="motorcycle181" type="motorcycle_motorcycle" depart="816.54" departLane="best" departSpeed="max" from="817484210#0" to="817484210#3"/>
    <trip id="motorcycle182" type="motorcycle_motorcycle" depart="821.05" departLane="best" departSpeed="max" from="817484210#0" to="817484210#3"/>
    <trip id="motorcycle183" type="motorcycle_motorcycle" depart="825.56" departLane="best" departSpeed="max" from="817484210#0" to="817484210#3"/>
    <trip id="motorcycle184" type="motorcycle_motorcycle" depart="830.08" departLane="best" departSpeed="max" from="817484210#0" to="817484210#3"/>
    <trip id="motorcycle185" type="motorcycle_motorcycle" depart="834.59" departLane="best" departSpeed="max" from="817484210#0" to="817484210#3"/>
    <trip id="motorcycle186" type="motorcycle_motorcycle" depart="839.10" departLane="best" departSpeed="max" from="817484210#0" to="817484210#3"/>
    <trip id="motorcycle187" type="motorcycle_motorcycle" depart="843.61" departLane="best" departSpeed="max" from="817484210#0" to="817484210#3"/>
    <trip id="motorcycle188" type="motorcycle_motorcycle" depart="848.12" departLane="best" departSpeed="max" from="817484210#0" to="817484210#3"/>
    <trip id="motorcycle189" type="motorcycle_motorcycle" depart="852.63" departLane="best" departSpeed="max" from="817484210#0" to="817484210#3"/>